<?xml version="1.0" encoding="ISO-8859-1"?>
<febio_spec version="4.0">
  <Module type="multiphasic"/>
  <Globals>
    <Constants>
      <T>298</T>
      <R>8.3145e-6</R>
      <Fc>0</Fc>
    </Constants>
    <Solutes>
      <solute id="1" name="TGFB">
	<charge_number>0</charge_number>
	<molar_mass>1</molar_mass>
	<density>1100e12</density>
      </solute>
      <solute id="2" name="MAPK">
	<charge_number>0</charge_number>
	<molar_mass>1</molar_mass>
	<density>1100e12</density>
      </solute>
      <solute id="3" name="Smad">
	<charge_number>0</charge_number>
	<molar_mass>2</molar_mass>
	<density>1100e12</density>
      </solute>
      <solute id="4" name="MMP">
	<charge_number>0</charge_number>
	<molar_mass>1</molar_mass>
	<density>1100e12</density>
      </solute>
      <solute id="5" name="TIMP">
	<charge_number>0</charge_number>
	<molar_mass>1</molar_mass>
	<density>1100e12</density>
      </solute>      
    </Solutes>    
  </Globals>
  <Material>
    <material id="1" name="Material1" type="multiphasic">
      <phi0>0</phi0>
      <fluid_density>0</fluid_density>
      <penalty>1</penalty>
      <fixed_charge_density>0</fixed_charge_density>
      <solid type="kinematic growth">
	<density>1100e12</density>
	<elastic type="coupled Mooney-Rivlin">
	  <density>1100e12</density>
	  <c1 type="math">10.0/6.0</c1>
	  <c2 type="math">-c1/2.0</c2>
	  <k>16.111</k>
	</elastic>
	<growth type="area growth">
	  <multiplier>2.5</multiplier>
	  <sol_id>4</sol_id>
	  <fiber type="local">1,5</fiber>
	</growth>
      </solid>
      <permeability type="perm-const-iso">
	<perm>1</perm>
      </permeability>
      <osmotic_coefficient type="osm-coef-const">
	<osmcoef>1</osmcoef>
      </osmotic_coefficient>
      <solute sol="TGFB">
	<diffusivity type="diff-const-iso">
	  <free_diff>1</free_diff>
	  <diff>0</diff>
	</diffusivity>
	<solubility type="solub-const">
	  <solub>1</solub>
	</solubility>
      </solute>
      <solute sol="MAPK">
	<diffusivity type="diff-const-iso">
	  <free_diff>1</free_diff>
	  <diff>0</diff>
	</diffusivity>
	<solubility type="solub-const">
	  <solub>1</solub>
	</solubility>
      </solute>
      <solute sol="Smad">
	<diffusivity type="diff-const-iso">
	  <free_diff>1</free_diff>
	  <diff>0</diff>
	</diffusivity>
	<solubility type="solub-const">
	  <solub>1</solub>
	</solubility>
      </solute>
      <solute sol="MMP">
	<diffusivity type="diff-const-iso">
	  <free_diff>1</free_diff>
	  <diff>0</diff>
	</diffusivity>
	<solubility type="solub-const">
	  <solub>1</solub>
	</solubility>
      </solute>
      <solute sol="TIMP">
	<diffusivity type="diff-const-iso">
	  <free_diff>1</free_diff>
	  <diff>0</diff>
	</diffusivity>
	<solubility type="solub-const">
	  <solub>1</solub>
	</solubility>
      </solute>
      <reaction type="mass-action-forward" name="MAPK Hill activation by TGFB">
	<forward_rate type="Hill activation">
	  <Kmax>3.1718e-8</Kmax>
	  <reaction_weight>1.0</reaction_weight>
	  <degradation_rate>1.0</degradation_rate>
	  <E_50>0.5</E_50>
	  <Hill_coeff>1.2</Hill_coeff>
	  <sol_id_act>1</sol_id_act>
	</forward_rate>
	<vP species="MAPK">
	  <vP>1</vP>
	</vP>
      </reaction>
      <reaction type="mass-action-forward" name="MAPK degradation">
	<forward_rate type="constant reaction rate">
	  <k>3.1718e-8</k>
	</forward_rate>
	<vR species="MAPK">
	  <vR>1</vR>
	</vR>
      </reaction>
      <reaction type="mass-action-forward" name="Smad Hill activation by TGFB">
	<forward_rate type="Hill activation">
	  <Kmax>3.1718e-8</Kmax>
	  <reaction_weight>1.0</reaction_weight>
	  <degradation_rate>1.0</degradation_rate>
	  <E_50>0.5</E_50>
	  <Hill_coeff>1.2</Hill_coeff>
	  <sol_id_act>1</sol_id_act>
	</forward_rate>
	<vP species="Smad">
	  <vP>1</vP>
	</vP>
      </reaction>
      <reaction type="mass-action-forward" name="Smad degradation">
	<forward_rate type="constant reaction rate">
	  <k>3.1718e-8</k>
	</forward_rate>
	<vR species="Smad">
	  <vR>1</vR>
	</vR>
      </reaction>			
      <reaction type="mass-action-forward" name="MMP Hill activation by MAPK and inhibition by TIMP">
	<forward_rate type="Hill activation AND inhibition">
	  <Kmax>3.1718e-8</Kmax>
	  <reaction_weight>1.0</reaction_weight>
	  <degradation_rate>1.0</degradation_rate>
	  <E_50>0.5</E_50>
	  <Hill_coeff>1.2</Hill_coeff>
	  <sol_id_act>2</sol_id_act>
	  <sol_id_inh>5</sol_id_inh>
	</forward_rate>
	<vP species="MMP">
	  <vP>1</vP>
	</vP>
      </reaction>
      <reaction type="mass-action-forward" name="MMP degradation">
	<forward_rate type="constant reaction rate">
	  <k>3.1718e-8</k>
	</forward_rate>
	<vR species="MMP">
	  <vR>1</vR>
	</vR>
      </reaction>			
      <reaction type="mass-action-forward" name="TIMP Hill activation by Smad">
	<forward_rate type="Hill activation">
	  <Kmax>3.1718e-8</Kmax>
	  <reaction_weight>1.0</reaction_weight>
	  <degradation_rate>1.0</degradation_rate>
	  <E_50>0.5</E_50>
	  <Hill_coeff>1.2</Hill_coeff>
	  <sol_id_act>3</sol_id_act>
	</forward_rate>
	<vP species="TIMP">
	  <vP>1</vP>
	</vP>
      </reaction>
      <reaction type="mass-action-forward" name="TIMP degradation">
	<forward_rate type="constant reaction rate">
	  <k>3.1718e-8</k>
	</forward_rate>
	<vR species="TIMP">
	  <vR>1</vR>
	</vR>
      </reaction>      
    </material>
  </Material>
  <Mesh>
    <Nodes name="Object1">
      <node id="1">0.65,0,0</node>
      <node id="2">3.9801021e-17,0.65,0</node>
      <node id="3">3.061617e-17,0.5,0</node>
      <node id="4">0.5,0,0</node>
      <node id="5">0.65,0,3</node>
      <node id="6">3.9801021e-17,0.65,3</node>
      <node id="7">3.061617e-17,0.5,3</node>
      <node id="8">0.5,0,3</node>
      <node id="9">0.637510432,0.126808709,0</node>
      <node id="10">0.600521696,0.248744231,0</node>
      <node id="11">0.540455248,0.361120651,0</node>
      <node id="12">0.459619408,0.459619408,0</node>
      <node id="13">0.361120651,0.540455248,0</node>
      <node id="14">0.248744231,0.600521696,0</node>
      <node id="15">0.126808709,0.637510432,0</node>
      <node id="16">3.9801021e-17,0.65,0.06</node>
      <node id="17">3.9801021e-17,0.65,0.12</node>
      <node id="18">3.9801021e-17,0.65,0.18</node>
      <node id="19">3.9801021e-17,0.65,0.24</node>
      <node id="20">3.9801021e-17,0.65,0.3</node>
<!-- ... 2275 like lines cut -->
    </Nodes>
    <Elements type="hex8" name="Part1">
      <elem id="1">1,9,1239,241,120,245,1267,1080</elem>
      <elem id="2">9,10,1240,1239,245,246,1268,1267</elem>
      <elem id="3">10,11,1241,1240,246,247,1269,1268</elem>
      <elem id="4">11,12,1242,1241,247,248,1270,1269</elem>
      <elem id="5">12,13,1243,1242,248,249,1271,1270</elem>
      <elem id="6">13,14,1244,1243,249,250,1272,1271</elem>
      <elem id="7">14,15,1245,1244,250,251,1273,1272</elem>
      <elem id="8">15,2,121,1245,251,16,588,1273</elem>
      <elem id="9">241,1239,1232,240,1080,1267,1274,1079</elem>
      <elem id="10">1239,1240,1233,1232,1267,1268,1275,1274</elem>
      <elem id="11">1240,1241,1234,1233,1268,1269,1276,1275</elem>
      <elem id="12">1241,1242,1235,1234,1269,1270,1277,1276</elem>
      <elem id="13">1242,1243,1236,1235,1270,1271,1278,1277</elem>
      <elem id="14">1243,1244,1237,1236,1271,1272,1279,1278</elem>
      <elem id="15">1244,1245,1238,1237,1272,1273,1280,1279</elem>
      <elem id="16">1245,121,122,1238,1273,588,589,1280</elem>
      <elem id="17">240,1232,1225,239,1079,1274,1281,1078</elem>
      <elem id="18">1232,1233,1226,1225,1274,1275,1282,1281</elem>
      <elem id="19">1233,1234,1227,1226,1275,1276,1283,1282</elem>
      <elem id="20">1234,1235,1228,1227,1276,1277,1284,1283</elem>
<!-- ... 1580 like lines cut -->
    </Elements>
    <NodeSet name="BottomNodes">
      1, 2, 3, 4, 9, 10, 11, 12,
      13, 14, 15, 121, 122, 123, 176, 177,
      178, 179, 180, 181, 182, 239, 240, 241,
      1225, 1226, 1227, 1228, 1229, 1230, 1231, 1232,
      1233, 1234, 1235, 1236, 1237, 1238, 1239, 1240,
      1241, 1242, 1243, 1244, 1245
    </NodeSet>
    <NodeSet name="XAxis">
      1, 4, 5, 8, 72, 73, 74, 75,
      76, 77, 78, 79, 80, 81, 82, 83,
      84, 85, 86, 87, 88, 89, 90, 91,
      92, 93, 94, 95, 96, 97, 98, 99,
      100, 101, 102, 103, 104, 105, 106, 107,
      108, 109, 110, 111, 112, 113, 114, 115,
      116, 117, 118, 119, 120, 183, 184, 185,
      186, 187, 188, 189, 190, 191, 192, 193,
      194, 195, 196, 197, 198, 199, 200, 201,
      202, 203, 204, 205, 206, 207, 208, 209,
      210, 211, 212, 213, 214, 215, 216, 217,
      218, 219, 220, 221, 222, 223, 224, 225,
      226, 227, 228, 229, 230, 231, 239, 240,
      241, 242, 243, 244, 1078, 1079, 1080, 1081,
      1082, 1083, 1084, 1085, 1086, 1087, 1088, 1089,
      1090, 1091, 1092, 1093, 1094, 1095, 1096, 1097,
      1098, 1099, 1100, 1101, 1102, 1103, 1104, 1105,
      1106, 1107, 1108, 1109, 1110, 1111, 1112, 1113,
      1114, 1115, 1116, 1117, 1118, 1119, 1120, 1121,
      1122, 1123, 1124, 1125, 1126, 1127, 1128, 1129,
<!-- ... 12 like lines cut -->
    </NodeSet>
    <NodeSet name="YAxis">
      2, 3, 6, 7, 16, 17, 18, 19,
      20, 21, 22, 23, 24, 25, 26, 27,
      28, 29, 30, 31, 32, 33, 34, 35,
      36, 37, 38, 39, 40, 41, 42, 43,
      44, 45, 46, 47, 48, 49, 50, 51,
      52, 53, 54, 55, 56, 57, 58, 59,
      60, 61, 62, 63, 64, 121, 122, 123,
      124, 125, 126, 127, 128, 129, 130, 131,
      132, 133, 134, 135, 136, 137, 138, 139,
      140, 141, 142, 143, 144, 145, 146, 147,
      148, 149, 150, 151, 152, 153, 154, 155,
      156, 157, 158, 159, 160, 161, 162, 163,
      164, 165, 166, 167, 168, 169, 170, 171,
      172, 173, 174, 175, 588, 589, 590, 591,
      592, 593, 594, 595, 596, 597, 598, 599,
      600, 601, 602, 603, 604, 605, 606, 607,
      608, 609, 610, 611, 612, 613, 614, 615,
      616, 617, 618, 619, 620, 621, 622, 623,
      624, 625, 626, 627, 628, 629, 630, 631,
      632, 633, 634, 635, 636, 637, 638, 639,
<!-- ... 12 like lines cut -->
    </NodeSet>
    <NodeSet name="AllNodes">
      1, 2, 3, 4, 5, 6, 7, 8,
      9, 10, 11, 12, 13, 14, 15, 16,
      17, 18, 19, 20, 21, 22, 23, 24,
      25, 26, 27, 28, 29, 30, 31, 32,
      33, 34, 35, 36, 37, 38, 39, 40,
      41, 42, 43, 44, 45, 46, 47, 48,
      49, 50, 51, 52, 53, 54, 55, 56,
      57, 58, 59, 60, 61, 62, 63, 64,
      65, 66, 67, 68, 69, 70, 71, 72,
      73, 74, 75, 76, 77, 78, 79, 80,
      81, 82, 83, 84, 85, 86, 87, 88,
      89, 90, 91, 92, 93, 94, 95, 96,
      97, 98, 99, 100, 101, 102, 103, 104,
      105, 106, 107, 108, 109, 110, 111, 112,
      113, 114, 115, 116, 117, 118, 119, 120,
      121, 122, 123, 124, 125, 126, 127, 128,
      129, 130, 131, 132, 133, 134, 135, 136,
      137, 138, 139, 140, 141, 142, 143, 144,
      145, 146, 147, 148, 149, 150, 151, 152,
      153, 154, 155, 156, 157, 158, 159, 160,
<!-- ... 267 like lines cut -->
    </NodeSet>
    <NodeSet name="EndNodes">
      5, 6, 7, 8, 65, 66, 67, 68,
      69, 70, 71, 173, 174, 175, 232, 233,
      234, 235, 236, 237, 238, 242, 243, 244,
      1246, 1247, 1248, 1249, 1250, 1251, 1252, 1253,
      1254, 1255, 1256, 1257, 1258, 1259, 1260, 1261,
      1262, 1263, 1264, 1265, 1266
    </NodeSet>
    <Surface name="IntimalSurface">
      <quad4 id="1">3,176,735,124</quad4>
      <quad4 id="2">176,177,736,735</quad4>
      <quad4 id="3">177,178,737,736</quad4>
      <quad4 id="4">178,179,738,737</quad4>
      <quad4 id="5">179,180,739,738</quad4>
      <quad4 id="6">180,181,740,739</quad4>
      <quad4 id="7">181,182,741,740</quad4>
      <quad4 id="8">182,4,183,741</quad4>
      <quad4 id="9">124,735,742,125</quad4>
      <quad4 id="10">735,736,743,742</quad4>
      <quad4 id="11">736,737,744,743</quad4>
      <quad4 id="12">737,738,745,744</quad4>
      <quad4 id="13">738,739,746,745</quad4>
      <quad4 id="14">739,740,747,746</quad4>
      <quad4 id="15">740,741,748,747</quad4>
      <quad4 id="16">741,183,184,748</quad4>
      <quad4 id="17">125,742,749,126</quad4>
      <quad4 id="18">742,743,750,749</quad4>
      <quad4 id="19">743,744,751,750</quad4>
      <quad4 id="20">744,745,752,751</quad4>
<!-- ... 380 like lines cut -->
    </Surface>
  </Mesh>
  <MeshDomains>
    <SolidDomain name="Part1" mat="Material1"/>
  </MeshDomains>
  <Initial>
    <ic name="Initial TGFB" node_set="AllNodes" type="initial concentration">
      <dof>c1</dof>
      <value type="math">1.0*exp(-1.0*(abs(Z^3))/3.0)</value>
    </ic>
    <ic name="Initial MAPK" node_set="AllNodes" type="initial concentration">
      <dof>c2</dof>
      <value>0.0</value>
    </ic>
    <ic name="Initial Smad" node_set="AllNodes" type="initial concentration">
      <dof>c3</dof>
      <value>0.0</value>
    </ic>
    <ic name="Initial MMP" node_set="AllNodes" type="initial concentration">
      <dof>c4</dof>
      <value>0.0</value>
    </ic>
    <ic name="Initial TIMP" node_set="AllNodes" type="initial concentration">
      <dof>c5</dof>
      <value>0.0</value>
    </ic>        
  </Initial>  
  <Boundary>
    <bc name="FixedBottom" node_set="BottomNodes" type="zero displacement">
      <x_dof>0</x_dof>
      <y_dof>0</y_dof>
      <z_dof>1</z_dof>
    </bc>
    <bc name="XAxisFixedInY" node_set="XAxis" type="zero displacement">
      <x_dof>0</x_dof>
      <y_dof>1</y_dof>
      <z_dof>0</z_dof>
    </bc>
    <bc name="YAxisFixedInX" node_set="YAxis" type="zero displacement">
      <x_dof>1</x_dof>
      <y_dof>0</y_dof>
      <z_dof>0</z_dof>
    </bc>
    <bc name="FixedEnd" node_set="EndNodes" type="zero displacement">
      <x_dof>0</x_dof>
      <y_dof>0</y_dof>
      <z_dof>1</z_dof>
    </bc>
    <bc name="ZeroFluidPressure" node_set="AllNodes" type="zero fluid pressure"/>    
    <bc name="TGFB" node_set="AllNodes" type="prescribed concentration">
      <dof>c1</dof>
      <value type="math">1.0*exp(-1.0*(abs(Z^3))/3.0)</value>
    </bc>
  </Boundary>
  <Loads>
    <surface_load name="Pressurization" surface="IntimalSurface" type="pressure">
      <pressure lc="2">0.016</pressure>
      <symmetric_stiffness>1</symmetric_stiffness>
      <linear>0</linear>
      <shell_bottom>0</shell_bottom>
    </surface_load>
  </Loads>
  <Step>
    <step id="1" name="Pressurization">
      <Control>
	<analysis>TRANSIENT</analysis>
	<time_steps>10</time_steps>
	<step_size>1e-10</step_size>
	<plot_zero_state>1</plot_zero_state>
	<!--plot_level>PLOT_MUST_POINTS</plot_level-->
	<output_level>OUTPUT_MAJOR_ITRS</output_level>
	<plot_stride>10</plot_stride>
	<adaptor_re_solve>1</adaptor_re_solve>
	<time_stepper type="default">
	  <max_retries>5</max_retries>
	  <opt_iter>11</opt_iter>
	  <dtmin>0</dtmin>
	  <dtmax lc="1"/>
	  <aggressiveness>0</aggressiveness>
	  <cutback>0.5</cutback>
	  <dtforce>0</dtforce>
	</time_stepper>
	<solver type="multiphasic">
	  <symmetric_stiffness>non-symmetric</symmetric_stiffness>
	  <equation_scheme>staggered</equation_scheme>
	  <equation_order>default</equation_order>
	  <optimize_bw>0</optimize_bw>
	  <lstol>0.9</lstol>
	  <lsmin>0.01</lsmin>
	  <lsiter>5</lsiter>
	  <max_refs>15</max_refs>
	  <check_zero_diagonal>0</check_zero_diagonal>
	  <zero_diagonal_tol>0</zero_diagonal_tol>
	  <force_partition>0</force_partition>
	  <reform_each_time_step>1</reform_each_time_step>
	  <reform_augment>0</reform_augment>
	  <diverge_reform>1</diverge_reform>
	  <min_residual>1e-20</min_residual>
	  <max_residual>0</max_residual>
	  <dtol>1e-3</dtol>
	  <etol>1e-3</etol>
	  <rtol>0</rtol>
	  <rhoi>0</rhoi>
	  <alpha>1</alpha>
	  <beta>0.25</beta>
	  <gamma>0.5</gamma>
	  <logSolve>0</logSolve>
	  <arc_length>0</arc_length>
	  <arc_length_scale>0</arc_length_scale>
	  <ptol>1e-3</ptol>
	  <ctol>1e-5</ctol>
	  <force_positive_concentrations>1</force_positive_concentrations>
	  <qn_method type="Broyden">
	    <max_ups>10</max_ups>
	    <max_buffer_size>0</max_buffer_size>
	    <cycle_buffer>1</cycle_buffer>
	    <cmax>100000</cmax>
	  </qn_method>
	</solver>
      </Control>
    </step>
    <step id="2" name="Growth">
  <Control>
    <analysis>TRANSIENT</analysis>
    <time_steps>80</time_steps>
    <step_size>3.1536e6</step_size>
    <plot_zero_state>1</plot_zero_state>
    <plot_level>PLOT_MUST_POINTS</plot_level>
    <adaptor_re_solve>1</adaptor_re_solve>
    <time_stepper type="default">
      <max_retries>20</max_retries>
      <opt_iter>11</opt_iter>
      <dtmin>1.1536e6</dtmin>
      <dtmax lc="1"/><!--6.36e6</dtmax-->
      <aggressiveness>0</aggressiveness>
      <cutback>0.5</cutback>
      <dtforce>0</dtforce>
    </time_stepper>
    <solver type="multiphasic">
      <symmetric_stiffness>non-symmetric</symmetric_stiffness>
      <equation_scheme>staggered</equation_scheme>
      <equation_order>default</equation_order>
      <optimize_bw>0</optimize_bw>
      <lstol>0.9</lstol>
      <lsmin>0.01</lsmin>
      <lsiter>5</lsiter>
      <max_refs>15</max_refs>
      <check_zero_diagonal>0</check_zero_diagonal>
      <zero_diagonal_tol>0</zero_diagonal_tol>
      <force_partition>0</force_partition>
      <reform_each_time_step>1</reform_each_time_step>
      <reform_augment>0</reform_augment>
      <diverge_reform>1</diverge_reform>
      <min_residual>1e-20</min_residual>
      <max_residual>0</max_residual>
      <dtol>1e-9</dtol>
      <etol>1e-3</etol>
      <rtol>0</rtol>
      <rhoi>0</rhoi>
      <alpha>1</alpha>
      <beta>0.25</beta>
      <gamma>0.5</gamma>
      <logSolve>0</logSolve>
      <arc_length>0</arc_length>
      <arc_length_scale>0</arc_length_scale>
      <ptol>1e-3</ptol>
      <ctol>1e-9</ctol>
      <force_positive_concentrations>1</force_positive_concentrations>
      <qn_method type="Broyden">
	<max_ups>20</max_ups>
	<max_buffer_size>0</max_buffer_size>
	<cycle_buffer>1</cycle_buffer>
	<cmax>100000</cmax>
      </qn_method>
    </solver>
  </Control>
    </step>
  </Step>
  <LoadData>
    <load_controller id="1" name="MustPoints" type="loadcurve">
      <interpolate>LINEAR</interpolate>
      <extend>REPEAT</extend>
      <points>
	<point>0,7.884e6</point>
	<point>1.577e7,7.884e6</point>
      </points>
    </load_controller>		
    <load_controller id="2" name="Pressurization" type="loadcurve">
      <interpolate>LINEAR</interpolate>
      <extend>CONSTANT</extend>
      <points>
	<pt>0,0</pt>
	<pt>1e-9,1</pt>
      </points>
    </load_controller>
  </LoadData>
  <Output>
    <plotfile type="febio">
      <var type="displacement"/>
      <var type="stress"/>
      <var type="SPR stress"/>
      <var type="nodal stress"/>
      <var type="relative volume"/>
      <var type="solid stress"/>
      <var type="fluid flux"/>
      <var type="effective fluid pressure"/>
      <var type="solute concentration"/>
      <var type="effective solute concentration"/>
      <var type="referential solute concentration"/>
      <var type="solute flux"/>      
      <var type="growth ratio"/>
      <var type="growth tensor"/>
      <var type="stress trace"/>
      <var type="growth elastic deformation gradient"/>
      <var type="Jacobian"/>
      <var type="growth elastic Jacobian"/>
      <var type="growth Jacobian"/>
    </plotfile>
  </Output>
</febio_spec>
