<?xml version="1.0" encoding="ISO-8859-1"?>
<febio_spec version="4.0">
  <Module type="multiphasic"/>
  <Globals>
    <Constants>
      <T>298</T>
      <R>8.3145e-6</R>
      <Fc>0</Fc>
    </Constants>
    <Solutes>
      <solute id="1" name="TGFB">
	<charge_number>0</charge_number>
	<molar_mass>1</molar_mass>
	<density>1100e12</density>
      </solute>
      <solute id="2" name="MAPK">
	<charge_number>0</charge_number>
	<molar_mass>1</molar_mass>
	<density>1100e12</density>
      </solute>
      <solute id="3" name="Smad">
	<charge_number>0</charge_number>
	<molar_mass>2</molar_mass>
	<density>1100e12</density>
      </solute>
      <solute id="4" name="MMP">
	<charge_number>0</charge_number>
	<molar_mass>1</molar_mass>
	<density>1100e12</density>
      </solute>
      <solute id="5" name="TIMP">
	<charge_number>0</charge_number>
	<molar_mass>1</molar_mass>
	<density>1100e12</density>
      </solute>      
    </Solutes>    
  </Globals>
  <Material>
    <material id="1" name="Material1" type="multiphasic">
      <phi0>0</phi0>
      <fluid_density>0</fluid_density>
      <penalty>1</penalty>
      <fixed_charge_density>0</fixed_charge_density>
      <solid type="kinematic growth">
	<density>1100e12</density>
	<elastic type="coupled Mooney-Rivlin">
	  <density>1100e12</density>
	  <c1 type="math">10.0/6.0</c1>
	  <c2 type="math">-c1/2.0</c2>
	  <k>16.111</k>
	</elastic>
	<growth type="area growth">
	  <multiplier>2.5</multiplier>
	  <sol_id>4</sol_id>
	  <fiber type="local">1,5</fiber>
	</growth>
      </solid>
      <permeability type="perm-const-iso">
	<perm>1</perm>
      </permeability>
      <osmotic_coefficient type="osm-coef-const">
	<osmcoef>1</osmcoef>
      </osmotic_coefficient>
      <solute sol="TGFB">
	<diffusivity type="diff-const-iso">
	  <free_diff>1</free_diff>
	  <diff>0</diff>
	</diffusivity>
	<solubility type="solub-const">
	  <solub>1</solub>
	</solubility>
      </solute>
      <solute sol="MAPK">
	<diffusivity type="diff-const-iso">
	  <free_diff>1</free_diff>
	  <diff>0</diff>
	</diffusivity>
	<solubility type="solub-const">
	  <solub>1</solub>
	</solubility>
      </solute>
      <solute sol="Smad">
	<diffusivity type="diff-const-iso">
	  <free_diff>1</free_diff>
	  <diff>0</diff>
	</diffusivity>
	<solubility type="solub-const">
	  <solub>1</solub>
	</solubility>
      </solute>
      <solute sol="MMP">
	<diffusivity type="diff-const-iso">
	  <free_diff>1</free_diff>
	  <diff>0</diff>
	</diffusivity>
	<solubility type="solub-const">
	  <solub>1</solub>
	</solubility>
      </solute>
      <solute sol="TIMP">
	<diffusivity type="diff-const-iso">
	  <free_diff>1</free_diff>
	  <diff>0</diff>
	</diffusivity>
	<solubility type="solub-const">
	  <solub>1</solub>
	</solubility>
      </solute>
      <reaction type="mass-action-forward-referential" name="MAPK Hill activation by TGFB">
	<forward_rate type="Hill activation">
	  <Kmax>3.1718e-8</Kmax>
	  <reaction_weight>1.0</reaction_weight>
	  <degradation_rate>1.0</degradation_rate>
	  <E_50>0.5</E_50>
	  <Hill_coeff>1.2</Hill_coeff>
	  <sol_id_act>1</sol_id_act>
	</forward_rate>
	<vP species="MAPK">
	  <vP>1</vP>
	</vP>
      </reaction>
      <reaction type="mass-action-forward-referential" name="MAPK degradation">
	<forward_rate type="constant reaction rate">
	  <k>3.1718e-8</k>
	</forward_rate>
	<vR species="MAPK">
	  <vR>1</vR>
	</vR>
      </reaction>
      <reaction type="mass-action-forward-referential" name="Smad Hill activation by TGFB">
	<forward_rate type="Hill activation">
	  <Kmax>3.1718e-8</Kmax>
	  <reaction_weight>1.0</reaction_weight>
	  <degradation_rate>1.0</degradation_rate>
	  <E_50>0.5</E_50>
	  <Hill_coeff>1.2</Hill_coeff>
	  <sol_id_act>1</sol_id_act>
	</forward_rate>
	<vP species="Smad">
	  <vP>1</vP>
	</vP>
      </reaction>
      <reaction type="mass-action-forward-referential" name="Smad degradation">
	<forward_rate type="constant reaction rate">
	  <k>3.1718e-8</k>
	</forward_rate>
	<vR species="Smad">
	  <vR>1</vR>
	</vR>
      </reaction>			
      <reaction type="mass-action-forward-referential" name="MMP Hill activation by MAPK and inhibition by TIMP">
	<forward_rate type="Hill activation AND inhibition">
	  <Kmax>3.1718e-8</Kmax>
	  <reaction_weight>1.0</reaction_weight>
	  <degradation_rate>1.0</degradation_rate>
	  <E_50>0.5</E_50>
	  <Hill_coeff>1.2</Hill_coeff>
	  <sol_id_act>2</sol_id_act>
	  <sol_id_inh>5</sol_id_inh>
	</forward_rate>
	<vP species="MMP">
	  <vP>1</vP>
	</vP>
      </reaction>
      <reaction type="mass-action-forward-referential" name="MMP degradation">
	<forward_rate type="constant reaction rate">
	  <k>3.1718e-8</k>
	</forward_rate>
	<vR species="MMP">
	  <vR>1</vR>
	</vR>
      </reaction>			
      <reaction type="mass-action-forward-referential" name="TIMP Hill activation by Smad">
	<forward_rate type="Hill activation">
	  <Kmax>3.1718e-8</Kmax>
	  <reaction_weight>1.0</reaction_weight>
	  <degradation_rate>1.0</degradation_rate>
	  <E_50>0.5</E_50>
	  <Hill_coeff>1.2</Hill_coeff>
	  <sol_id_act>3</sol_id_act>
	</forward_rate>
	<vP species="TIMP">
	  <vP>1</vP>
	</vP>
      </reaction>
      <reaction type="mass-action-forward-referential" name="TIMP degradation">
	<forward_rate type="constant reaction rate">
	  <k>3.1718e-8</k>
	</forward_rate>
	<vR species="TIMP">
	  <vR>1</vR>
	</vR>
      </reaction>      
    </material>
  </Material>
  <Mesh>
    <Nodes name="Object1">
      <node id="1">0.65,0,0</node>
      <node id="2">3.9801021e-17,0.65,0</node>
      <node id="3">3.061617e-17,0.5,0</node>
      <node id="4">0.5,0,0</node>
      <node id="5">0.65,0,3</node>
      <node id="6">3.9801021e-17,0.65,3</node>
      <node id="7">3.061617e-17,0.5,3</node>
      <node id="8">0.5,0,3</node>
      <node id="9">0.637510432,0.126808709,0</node>
      <node id="10">0.600521696,0.248744231,0</node>
      <node id="11">0.540455248,0.361120651,0</node>
      <node id="12">0.459619408,0.459619408,0</node>
      <node id="13">0.361120651,0.540455248,0</node>
      <node id="14">0.248744231,0.600521696,0</node>
      <node id="15">0.126808709,0.637510432,0</node>
      <node id="16">3.9801021e-17,0.65,0.0451543052</node>
      <node id="17">3.9801021e-17,0.65,0.0925663257</node>
      <node id="18">3.9801021e-17,0.65,0.142348947</node>
      <node id="19">3.9801021e-17,0.65,0.1946207</node>
      <node id="20">3.9801021e-17,0.65,0.24950604</node>
<!-- ... 1375 like lines cut -->
    </Nodes>
    <Elements type="hex8" name="Part1">
      <elem id="1">1,9,759,161,80,165,787,660</elem>
      <elem id="2">9,10,760,759,165,166,788,787</elem>
      <elem id="3">10,11,761,760,166,167,789,788</elem>
      <elem id="4">11,12,762,761,167,168,790,789</elem>
      <elem id="5">12,13,763,762,168,169,791,790</elem>
      <elem id="6">13,14,764,763,169,170,792,791</elem>
      <elem id="7">14,15,765,764,170,171,793,792</elem>
      <elem id="8">15,2,81,765,171,16,368,793</elem>
      <elem id="9">161,759,752,160,660,787,794,659</elem>
      <elem id="10">759,760,753,752,787,788,795,794</elem>
      <elem id="11">760,761,754,753,788,789,796,795</elem>
      <elem id="12">761,762,755,754,789,790,797,796</elem>
      <elem id="13">762,763,756,755,790,791,798,797</elem>
      <elem id="14">763,764,757,756,791,792,799,798</elem>
      <elem id="15">764,765,758,757,792,793,800,799</elem>
      <elem id="16">765,81,82,758,793,368,369,800</elem>
      <elem id="17">160,752,745,159,659,794,801,658</elem>
      <elem id="18">752,753,746,745,794,795,802,801</elem>
      <elem id="19">753,754,747,746,795,796,803,802</elem>
      <elem id="20">754,755,748,747,796,797,804,803</elem>
<!-- ... 940 like lines cut -->
    </Elements>
    <NodeSet name="BottomNodes">
      1, 2, 3, 4, 9, 10, 11, 12,
      13, 14, 15, 81, 82, 83, 116, 117,
      118, 119, 120, 121, 122, 159, 160, 161,
      745, 746, 747, 748, 749, 750, 751, 752,
      753, 754, 755, 756, 757, 758, 759, 760,
      761, 762, 763, 764, 765
    </NodeSet>
    <NodeSet name="EndNodes">
      5, 6, 7, 8, 45, 46, 47, 48,
      49, 50, 51, 113, 114, 115, 152, 153,
      154, 155, 156, 157, 158, 162, 163, 164,
      766, 767, 768, 769, 770, 771, 772, 773,
      774, 775, 776, 777, 778, 779, 780, 781,
      782, 783, 784, 785, 786
    </NodeSet>
    <NodeSet name="XAxis">
      1, 4, 5, 8, 52, 53, 54, 55,
      56, 57, 58, 59, 60, 61, 62, 63,
      64, 65, 66, 67, 68, 69, 70, 71,
      72, 73, 74, 75, 76, 77, 78, 79,
      80, 123, 124, 125, 126, 127, 128, 129,
      130, 131, 132, 133, 134, 135, 136, 137,
      138, 139, 140, 141, 142, 143, 144, 145,
      146, 147, 148, 149, 150, 151, 159, 160,
      161, 162, 163, 164, 658, 659, 660, 661,
      662, 663, 664, 665, 666, 667, 668, 669,
      670, 671, 672, 673, 674, 675, 676, 677,
      678, 679, 680, 681, 682, 683, 684, 685,
      686, 687, 688, 689, 690, 691, 692, 693,
      694, 695, 696, 697, 698, 699, 700, 701,
      702, 703, 704, 705, 706, 707, 708, 709,
      710, 711, 712, 713, 714, 715, 716, 717,
      718, 719, 720, 721, 722, 723, 724, 725,
      726, 727, 728, 729, 730, 731, 732, 733,
      734, 735, 736, 737, 738, 739, 740, 741,
      742, 743, 744
    </NodeSet>
    <NodeSet name="YAxis">
      2, 3, 6, 7, 16, 17, 18, 19,
      20, 21, 22, 23, 24, 25, 26, 27,
      28, 29, 30, 31, 32, 33, 34, 35,
      36, 37, 38, 39, 40, 41, 42, 43,
      44, 81, 82, 83, 84, 85, 86, 87,
      88, 89, 90, 91, 92, 93, 94, 95,
      96, 97, 98, 99, 100, 101, 102, 103,
      104, 105, 106, 107, 108, 109, 110, 111,
      112, 113, 114, 115, 368, 369, 370, 371,
      372, 373, 374, 375, 376, 377, 378, 379,
      380, 381, 382, 383, 384, 385, 386, 387,
      388, 389, 390, 391, 392, 393, 394, 395,
      396, 397, 398, 399, 400, 401, 402, 403,
      404, 405, 406, 407, 408, 409, 410, 411,
      412, 413, 414, 415, 416, 417, 418, 419,
      420, 421, 422, 423, 424, 425, 426, 427,
      428, 429, 430, 431, 432, 433, 434, 435,
      436, 437, 438, 439, 440, 441, 442, 443,
      444, 445, 446, 447, 448, 449, 450, 451,
      452, 453, 454
    </NodeSet>
    <NodeSet name="AllNodes">
      1, 2, 3, 4, 5, 6, 7, 8,
      9, 10, 11, 12, 13, 14, 15, 16,
      17, 18, 19, 20, 21, 22, 23, 24,
      25, 26, 27, 28, 29, 30, 31, 32,
      33, 34, 35, 36, 37, 38, 39, 40,
      41, 42, 43, 44, 45, 46, 47, 48,
      49, 50, 51, 52, 53, 54, 55, 56,
      57, 58, 59, 60, 61, 62, 63, 64,
      65, 66, 67, 68, 69, 70, 71, 72,
      73, 74, 75, 76, 77, 78, 79, 80,
      81, 82, 83, 84, 85, 86, 87, 88,
      89, 90, 91, 92, 93, 94, 95, 96,
      97, 98, 99, 100, 101, 102, 103, 104,
      105, 106, 107, 108, 109, 110, 111, 112,
      113, 114, 115, 116, 117, 118, 119, 120,
      121, 122, 123, 124, 125, 126, 127, 128,
      129, 130, 131, 132, 133, 134, 135, 136,
      137, 138, 139, 140, 141, 142, 143, 144,
      145, 146, 147, 148, 149, 150, 151, 152,
      153, 154, 155, 156, 157, 158, 159, 160,
<!-- ... 155 like lines cut -->
    </NodeSet>
    <Surface name="IntimalSurface">
      <quad4 id="1">3,116,455,84</quad4>
      <quad4 id="2">116,117,456,455</quad4>
      <quad4 id="3">117,118,457,456</quad4>
      <quad4 id="4">118,119,458,457</quad4>
      <quad4 id="5">119,120,459,458</quad4>
      <quad4 id="6">120,121,460,459</quad4>
      <quad4 id="7">121,122,461,460</quad4>
      <quad4 id="8">122,4,123,461</quad4>
      <quad4 id="9">84,455,462,85</quad4>
      <quad4 id="10">455,456,463,462</quad4>
      <quad4 id="11">456,457,464,463</quad4>
      <quad4 id="12">457,458,465,464</quad4>
      <quad4 id="13">458,459,466,465</quad4>
      <quad4 id="14">459,460,467,466</quad4>
      <quad4 id="15">460,461,468,467</quad4>
      <quad4 id="16">461,123,124,468</quad4>
      <quad4 id="17">85,462,469,86</quad4>
      <quad4 id="18">462,463,470,469</quad4>
      <quad4 id="19">463,464,471,470</quad4>
      <quad4 id="20">464,465,472,471</quad4>
<!-- ... 220 like lines cut -->
    </Surface>
  </Mesh>
  <MeshDomains>
    <SolidDomain name="Part1" mat="Material1"/>
  </MeshDomains>
  <Initial>
    <ic name="Initial TGFB" node_set="AllNodes" type="initial concentration">
      <dof>c1</dof>
      <value type="math">0.5*exp(-1.0*(abs(Z^3))/3.0)</value>
    </ic>
    <ic name="Initial MAPK" node_set="AllNodes" type="initial concentration">
      <dof>c2</dof>
      <value>0.0</value>
    </ic>
    <ic name="Initial Smad" node_set="AllNodes" type="initial concentration">
      <dof>c3</dof>
      <value>0.0</value>
    </ic>
    <ic name="Initial MMP" node_set="AllNodes" type="initial concentration">
      <dof>c4</dof>
      <value>0.0</value>
    </ic>
    <ic name="Initial TIMP" node_set="AllNodes" type="initial concentration">
      <dof>c5</dof>
      <value>0.0</value>
    </ic>        
  </Initial>  
  <Boundary>
    <bc name="FixedBottom" node_set="BottomNodes" type="zero displacement">
      <x_dof>0</x_dof>
      <y_dof>0</y_dof>
      <z_dof>1</z_dof>
    </bc>
    <bc name="XAxisFixedInY" node_set="XAxis" type="zero displacement">
      <x_dof>0</x_dof>
      <y_dof>1</y_dof>
      <z_dof>0</z_dof>
    </bc>
    <bc name="YAxisFixedInX" node_set="YAxis" type="zero displacement">
      <x_dof>1</x_dof>
      <y_dof>0</y_dof>
      <z_dof>0</z_dof>
    </bc>
    <bc name="FixedEnd" node_set="EndNodes" type="zero displacement">
      <x_dof>0</x_dof>
      <y_dof>0</y_dof>
      <z_dof>1</z_dof>
    </bc>
    <bc name="ZeroFluidPressure" node_set="AllNodes" type="zero fluid pressure"/>    
    <bc name="TGFB" node_set="AllNodes" type="prescribed referential concentration">
      <dof>c1</dof>
      <value type="math">0.5*exp(-1.0*(abs(Z^3))/3.0)</value>
    </bc>
  </Boundary>
  <Loads>
    <surface_load name="Pressurization" surface="IntimalSurface" type="pressure">
      <pressure lc="2">0.016</pressure>
      <symmetric_stiffness>1</symmetric_stiffness>
      <linear>0</linear>
      <shell_bottom>0</shell_bottom>
    </surface_load>
  </Loads>
  <Step>
    <step id="1" name="Pressurization">
      <Control>
	<analysis>TRANSIENT</analysis>
	<time_steps>10</time_steps>
	<step_size>1e-10</step_size>
	<plot_zero_state>1</plot_zero_state>
	<!--plot_level>PLOT_MUST_POINTS</plot_level-->
	<output_level>OUTPUT_MAJOR_ITRS</output_level>
	<plot_stride>10</plot_stride>
	<adaptor_re_solve>1</adaptor_re_solve>
	<time_stepper type="default">
	  <max_retries>5</max_retries>
	  <opt_iter>11</opt_iter>
	  <dtmin>0</dtmin>
	  <dtmax lc="1"/>
	  <aggressiveness>0</aggressiveness>
	  <cutback>0.5</cutback>
	  <dtforce>0</dtforce>
	</time_stepper>
	<solver type="multiphasic">
	  <symmetric_stiffness>non-symmetric</symmetric_stiffness>
	  <equation_scheme>staggered</equation_scheme>
	  <equation_order>default</equation_order>
	  <optimize_bw>0</optimize_bw>
	  <lstol>0.9</lstol>
	  <lsmin>0.01</lsmin>
	  <lsiter>5</lsiter>
	  <max_refs>15</max_refs>
	  <check_zero_diagonal>0</check_zero_diagonal>
	  <zero_diagonal_tol>0</zero_diagonal_tol>
	  <force_partition>0</force_partition>
	  <reform_each_time_step>1</reform_each_time_step>
	  <reform_augment>0</reform_augment>
	  <diverge_reform>1</diverge_reform>
	  <min_residual>1e-20</min_residual>
	  <max_residual>0</max_residual>
	  <dtol>1e-5</dtol>
	  <etol>1e-3</etol>
	  <rtol>0</rtol>
	  <rhoi>0</rhoi>
	  <alpha>1</alpha>
	  <beta>0.25</beta>
	  <gamma>0.5</gamma>
	  <logSolve>0</logSolve>
	  <arc_length>0</arc_length>
	  <arc_length_scale>0</arc_length_scale>
	  <ptol>1e-3</ptol>
	  <ctol>1e-9</ctol>
	  <force_positive_concentrations>1</force_positive_concentrations>
	  <qn_method type="Broyden">
	    <max_ups>10</max_ups>
	    <max_buffer_size>0</max_buffer_size>
	    <cycle_buffer>1</cycle_buffer>
	    <cmax>100000</cmax>
	  </qn_method>
	</solver>
      </Control>
    </step>
    <step id="2" name="Growth">
  <Control>
    <analysis>TRANSIENT</analysis>
    <time_steps>80</time_steps>
    <step_size>3.1536e6</step_size>
    <plot_zero_state>1</plot_zero_state>
    <!--plot_level>PLOT_MUST_POINTS</plot_level-->
    <adaptor_re_solve>1</adaptor_re_solve>
    <time_stepper type="default">
      <max_retries>20</max_retries>
      <opt_iter>11</opt_iter>
      <dtmin>1.1536e6</dtmin>
      <dtmax>6.36e6</dtmax>
      <aggressiveness>0</aggressiveness>
      <cutback>0.5</cutback>
      <dtforce>0</dtforce>
    </time_stepper>
    <solver type="multiphasic">
      <symmetric_stiffness>non-symmetric</symmetric_stiffness>
      <equation_scheme>staggered</equation_scheme>
      <equation_order>default</equation_order>
      <optimize_bw>0</optimize_bw>
      <lstol>0.9</lstol>
      <lsmin>0.01</lsmin>
      <lsiter>5</lsiter>
      <max_refs>15</max_refs>
      <check_zero_diagonal>0</check_zero_diagonal>
      <zero_diagonal_tol>0</zero_diagonal_tol>
      <force_partition>0</force_partition>
      <reform_each_time_step>1</reform_each_time_step>
      <reform_augment>0</reform_augment>
      <diverge_reform>1</diverge_reform>
      <min_residual>1e-20</min_residual>
      <max_residual>0</max_residual>
      <dtol>1e-5</dtol>
      <etol>1e-3</etol>
      <rtol>0</rtol>
      <rhoi>0</rhoi>
      <alpha>1</alpha>
      <beta>0.25</beta>
      <gamma>0.5</gamma>
      <logSolve>0</logSolve>
      <arc_length>0</arc_length>
      <arc_length_scale>0</arc_length_scale>
      <ptol>1e-3</ptol>
      <ctol>1e-9</ctol>
      <force_positive_concentrations>1</force_positive_concentrations>
      <qn_method type="Broyden">
	<max_ups>20</max_ups>
	<max_buffer_size>0</max_buffer_size>
	<cycle_buffer>1</cycle_buffer>
	<cmax>100000</cmax>
      </qn_method>
    </solver>
  </Control>
    </step>
  </Step>
  <LoadData>
    <load_controller id="1" name="MustPoints" type="loadcurve">
      <interpolate>LINEAR</interpolate>
      <extend>REPEAT</extend>
      <points>
	<point>0,7.884e6</point>
	<point>1.577e7,7.884e6</point>
      </points>
    </load_controller>		
    <load_controller id="2" name="Pressurization" type="loadcurve">
      <interpolate>LINEAR</interpolate>
      <extend>CONSTANT</extend>
      <points>
	<pt>0,0</pt>
	<pt>1e-9,1</pt>
      </points>
    </load_controller>
  </LoadData>
  <Output>
    <plotfile type="febio">
      <var type="displacement"/>
      <var type="stress"/>
      <var type="SPR stress"/>
      <var type="nodal stress"/>
      <var type="relative volume"/>
      <var type="solid stress"/>
      <var type="fluid flux"/>
      <var type="effective fluid pressure"/>
      <var type="solute concentration"/>
      <var type="effective solute concentration"/>
      <var type="referential solute concentration"/>
      <var type="solute flux"/>      
      <var type="growth ratio"/>
      <var type="growth tensor"/>
      <var type="stress trace"/>
      <var type="growth elastic deformation gradient"/>
      <var type="Jacobian"/>
      <var type="growth elastic Jacobian"/>
      <var type="growth Jacobian"/>
    </plotfile>
  </Output>
</febio_spec>
