<?xml version="1.0" encoding="ISO-8859-1"?>
<febio_spec version="4.0">
  <Module type="multiphasic"/>
  <Control>
    <analysis>TRANSIENT</analysis>
    <time_steps>100</time_steps>
    <step_size>3.1536e6</step_size>
    <plot_zero_state>1</plot_zero_state>
    <plot_level>PLOT_MUST_POINTS</plot_level>
    <adaptor_re_solve>1</adaptor_re_solve>
    <time_stepper type="default">
      <max_retries>20</max_retries>
      <opt_iter>11</opt_iter>
      <dtmin>1.1536e5</dtmin>
      <dtmax lc="1"/>
      <aggressiveness>0</aggressiveness>
      <cutback>0.5</cutback>
      <dtforce>0</dtforce>
    </time_stepper>
    <solver type="multiphasic">
      <symmetric_stiffness>non-symmetric</symmetric_stiffness>
      <equation_scheme>staggered</equation_scheme>
      <equation_order>default</equation_order>
      <optimize_bw>0</optimize_bw>
      <lstol>0.9</lstol>
      <lsmin>0.01</lsmin>
      <lsiter>5</lsiter>
      <max_refs>15</max_refs>
      <check_zero_diagonal>0</check_zero_diagonal>
      <zero_diagonal_tol>0</zero_diagonal_tol>
      <force_partition>0</force_partition>
      <reform_each_time_step>1</reform_each_time_step>
      <reform_augment>0</reform_augment>
      <diverge_reform>1</diverge_reform>
      <min_residual>1e-20</min_residual>
      <max_residual>0</max_residual>
      <dtol>1e-3</dtol>
      <etol>1e-3</etol>
      <rtol>0</rtol>
      <rhoi>0</rhoi>
      <alpha>1</alpha>
      <beta>0.25</beta>
      <gamma>0.5</gamma>
      <logSolve>0</logSolve>
      <arc_length>0</arc_length>
      <arc_length_scale>0</arc_length_scale>
      <ptol>1e-3</ptol>
      <ctol>1e-9</ctol>
      <force_positive_concentrations>1</force_positive_concentrations>
      <qn_method type="Broyden">
	<max_ups>20</max_ups>
	<max_buffer_size>0</max_buffer_size>
	<cycle_buffer>1</cycle_buffer>
	<cmax>100000</cmax>
      </qn_method>
    </solver>
  </Control>
  <Globals>
    <Constants>
      <T>298</T>
      <R>8.31415e-6</R>
      <Fc>0</Fc>
    </Constants>
    <Solutes>
      <solute id="1" name="A">
	<charge_number>0</charge_number>
	<molar_mass>1</molar_mass>
	<density>1100e12</density>
      </solute>
      <solute id="2" name="B">
	<charge_number>0</charge_number>
	<molar_mass>1</molar_mass>
	<density>1100e12</density>
      </solute>
      <solute id="3" name="C">
	<charge_number>0</charge_number>
	<molar_mass>2</molar_mass>
	<density>1100e12</density>
      </solute>
    </Solutes>
  </Globals>
  <Material>
    <material id="1" name="Material1" type="multiphasic">
      <phi0>0</phi0>
      <fluid_density>0</fluid_density>
      <penalty>1</penalty>
      <fixed_charge_density>0</fixed_charge_density>
      <solid type="kinematic growth">
	<density>1100e12</density>
	<elastic type="coupled Mooney-Rivlin">
	  <density>1100e12</density>
	  <c1 type="math">10.0/6.0</c1>
	  <c2 type="math">-c1/2.0</c2>
	  <k>10</k>
	</elastic>
	<growth type="fiber growth">
	  <multiplier>1</multiplier>
	  <sol_id>3</sol_id>
	  <fiber type="vector">
	    <vector>0,0,1</vector>
	  </fiber>
	  <referential_concentration>1</referential_concentration>	  
	</growth>
      </solid>
      <permeability type="perm-const-iso">
	<perm>1</perm>
      </permeability>
      <osmotic_coefficient type="osm-coef-const">
	<osmcoef>1</osmcoef>
      </osmotic_coefficient>
      <solute sol="A">
	<diffusivity type="diff-const-iso">
	  <free_diff>1</free_diff>
	  <diff>0</diff>
	</diffusivity>
	<solubility type="solub-const">
	  <solub>1</solub>
	</solubility>
      </solute>
      <solute sol="B">
	<diffusivity type="diff-const-iso">
	  <free_diff>1</free_diff>
	  <diff>0</diff>
	</diffusivity>
	<solubility type="solub-const">
	  <solub>1</solub>
	</solubility>
      </solute>
      <solute sol="C">
	<diffusivity type="diff-const-iso">
	  <free_diff>1</free_diff>
	  <diff>0</diff>
	</diffusivity>
	<solubility type="solub-const">
	  <solub>1</solub>
	</solubility>
      </solute>
      <reaction type="mass-action-forward-referential" name="Chemical Conversion">
	<forward_rate type="constant reaction rate">
	  <k>3.171e-8</k>
	</forward_rate>
	<vR species="A">
	  <vR>1</vR>
	</vR>
	<vR species="B">
	  <vR>1</vR>
	</vR>
	<vP species="C">
	  <vP>1</vP>
	</vP>
      </reaction>
      <reaction type="mass-action-forward-referential" name="A Supply">
	<forward_rate type="constant reaction rate">
	  <k type="math">0.25*3.171e-8</k>
	</forward_rate>
	<vP species="A">
	  <vP>1</vP>
	</vP>
      </reaction>            
      <reaction type="mass-action-forward-referential" name="A degradation">
	<forward_rate type="constant reaction rate">
	  <k type="math">0.25*3.171e-8</k>
	</forward_rate>
	<vR species="A">
	  <vR>1</vR>
	</vR>
      </reaction>      
      <reaction type="mass-action-forward-referential" name="B Supply">
	<forward_rate type="constant reaction rate">
	  <k type="math">0.25*3.171e-8</k>
	</forward_rate>
	<vP species="B">
	  <vP>1</vP>
	</vP>
      </reaction>      
      <reaction type="mass-action-forward-referential" name="B degradation">
	<forward_rate type="constant reaction rate">
	  <k type="math">0.25*3.171e-8</k>
	</forward_rate>
	<vR species="B">
	  <vR>1</vR>
	</vR>
      </reaction>
      <reaction type="mass-action-forward-referential" name="C degradation">
	<forward_rate type="constant reaction rate">
	  <k type="math">1.0*3.171e-8</k>
	</forward_rate>
	<vR species="C">
	  <vR>1</vR>
	</vR>
      </reaction>      
      <reaction type="mass-action-forward-referential">
	<forward_rate type="stress sensitive reaction rate">
	  <k type="math">(3.1718e-8)*exp(-1.0*((abs(X)+abs(Y))^2)/0.3)</k>
	  <residual_stress>0.075</residual_stress>
	  <a0>1.0</a0>
	  <a>5.0</a>
	  <b>0.4</b>	  	  
	</forward_rate>
	<vP species="C">
	  <vP>1</vP>
	</vP>
      </reaction>
    </material>
  </Material>
  <Mesh>
    <Nodes name="Object1">
      <node id="1">0,0,0</node>
      <node id="2">0.5,0,0</node>
      <node id="3">0.5,0.5,0</node>
      <node id="4">0,0.5,0</node>
      <node id="5">0,0,1</node>
      <node id="6">0.5,0,1</node>
      <node id="7">0.5,0.5,1</node>
      <node id="8">0,0.5,1</node>
      <node id="9">0.0218610044,0,0</node>
      <node id="10">0.0459081092,0,0</node>
      <node id="11">0.0723599245,0,0</node>
      <node id="12">0.101456921,0,0</node>
      <node id="13">0.133463618,0,0</node>
      <node id="14">0.168670984,0,0</node>
      <node id="15">0.207399087,0,0</node>
      <node id="16">0.25,0,0</node>
      <node id="17">0.292600913,0,0</node>
      <node id="18">0.331329016,0,0</node>
      <node id="19">0.366536382,0,0</node>
      <node id="20">0.398543079,0,0</node>
<!-- ... 8939 like lines cut -->
    </Nodes>
    <Elements type="hex8" name="Part1">
      <elem id="1">1,9,2195,229,96,245,2435,1564</elem>
      <elem id="2">9,10,2196,2195,245,246,2436,2435</elem>
      <elem id="3">10,11,2197,2196,246,247,2437,2436</elem>
      <elem id="4">11,12,2198,2197,247,248,2438,2437</elem>
      <elem id="5">12,13,2199,2198,248,249,2439,2438</elem>
      <elem id="6">13,14,2200,2199,249,250,2440,2439</elem>
      <elem id="7">14,15,2201,2200,250,251,2441,2440</elem>
      <elem id="8">15,16,2202,2201,251,252,2442,2441</elem>
      <elem id="9">16,17,2203,2202,252,253,2443,2442</elem>
      <elem id="10">17,18,2204,2203,253,254,2444,2443</elem>
      <elem id="11">18,19,2205,2204,254,255,2445,2444</elem>
      <elem id="12">19,20,2206,2205,255,256,2446,2445</elem>
      <elem id="13">20,21,2207,2206,256,257,2447,2446</elem>
      <elem id="14">21,22,2208,2207,257,258,2448,2447</elem>
      <elem id="15">22,23,2209,2208,258,259,2449,2448</elem>
      <elem id="16">23,2,97,2209,259,24,680,2449</elem>
      <elem id="17">229,2195,2180,228,1564,2435,2450,1563</elem>
      <elem id="18">2195,2196,2181,2180,2435,2436,2451,2450</elem>
      <elem id="19">2196,2197,2182,2181,2436,2437,2452,2451</elem>
      <elem id="20">2197,2198,2183,2182,2437,2438,2453,2452</elem>
<!-- ... 7660 like lines cut -->
    </Elements>
    <NodeSet name="BottomNodes">
      1, 2, 3, 4, 9, 10, 11, 12,
      13, 14, 15, 16, 17, 18, 19, 20,
      21, 22, 23, 97, 98, 99, 100, 101,
      102, 103, 104, 105, 106, 107, 108, 109,
      110, 111, 156, 157, 158, 159, 160, 161,
      162, 163, 164, 165, 166, 167, 168, 169,
      170, 215, 216, 217, 218, 219, 220, 221,
      222, 223, 224, 225, 226, 227, 228, 229,
      1985, 1986, 1987, 1988, 1989, 1990, 1991, 1992,
      1993, 1994, 1995, 1996, 1997, 1998, 1999, 2000,
      2001, 2002, 2003, 2004, 2005, 2006, 2007, 2008,
      2009, 2010, 2011, 2012, 2013, 2014, 2015, 2016,
      2017, 2018, 2019, 2020, 2021, 2022, 2023, 2024,
      2025, 2026, 2027, 2028, 2029, 2030, 2031, 2032,
      2033, 2034, 2035, 2036, 2037, 2038, 2039, 2040,
      2041, 2042, 2043, 2044, 2045, 2046, 2047, 2048,
      2049, 2050, 2051, 2052, 2053, 2054, 2055, 2056,
      2057, 2058, 2059, 2060, 2061, 2062, 2063, 2064,
      2065, 2066, 2067, 2068, 2069, 2070, 2071, 2072,
      2073, 2074, 2075, 2076, 2077, 2078, 2079, 2080,
<!-- ... 17 like lines cut -->
    </NodeSet>
    <NodeSet name="XAxis">
      1, 2, 5, 6, 9, 10, 11, 12,
      13, 14, 15, 16, 17, 18, 19, 20,
      21, 22, 23, 24, 25, 26, 27, 28,
      29, 30, 31, 32, 33, 34, 35, 36,
      37, 38, 39, 40, 41, 42, 43, 44,
      45, 46, 47, 48, 49, 50, 51, 52,
      53, 54, 55, 56, 57, 58, 59, 60,
      61, 62, 63, 64, 65, 66, 67, 68,
      69, 70, 71, 72, 73, 74, 75, 76,
      77, 78, 79, 80, 81, 82, 83, 84,
      85, 86, 87, 88, 89, 90, 91, 92,
      93, 94, 95, 96, 245, 246, 247, 248,
      249, 250, 251, 252, 253, 254, 255, 256,
      257, 258, 259, 260, 261, 262, 263, 264,
      265, 266, 267, 268, 269, 270, 271, 272,
      273, 274, 275, 276, 277, 278, 279, 280,
      281, 282, 283, 284, 285, 286, 287, 288,
      289, 290, 291, 292, 293, 294, 295, 296,
      297, 298, 299, 300, 301, 302, 303, 304,
      305, 306, 307, 308, 309, 310, 311, 312,
<!-- ... 46 like lines cut -->
    </NodeSet>
    <NodeSet name="YAxis">
      1, 4, 5, 8, 68, 69, 70, 71,
      72, 73, 74, 75, 76, 77, 78, 79,
      80, 81, 82, 83, 84, 85, 86, 87,
      88, 89, 90, 91, 92, 93, 94, 95,
      96, 171, 172, 173, 174, 175, 176, 177,
      178, 179, 180, 181, 182, 183, 184, 185,
      186, 187, 188, 189, 190, 191, 192, 193,
      194, 195, 196, 197, 198, 199, 215, 216,
      217, 218, 219, 220, 221, 222, 223, 224,
      225, 226, 227, 228, 229, 230, 231, 232,
      233, 234, 235, 236, 237, 238, 239, 240,
      241, 242, 243, 244, 1550, 1551, 1552, 1553,
      1554, 1555, 1556, 1557, 1558, 1559, 1560, 1561,
      1562, 1563, 1564, 1565, 1566, 1567, 1568, 1569,
      1570, 1571, 1572, 1573, 1574, 1575, 1576, 1577,
      1578, 1579, 1580, 1581, 1582, 1583, 1584, 1585,
      1586, 1587, 1588, 1589, 1590, 1591, 1592, 1593,
      1594, 1595, 1596, 1597, 1598, 1599, 1600, 1601,
      1602, 1603, 1604, 1605, 1606, 1607, 1608, 1609,
      1610, 1611, 1612, 1613, 1614, 1615, 1616, 1617,
<!-- ... 46 like lines cut -->
    </NodeSet>
    <NodeSet name="AllNodes">
      1, 2, 3, 4, 5, 6, 7, 8,
      9, 10, 11, 12, 13, 14, 15, 16,
      17, 18, 19, 20, 21, 22, 23, 24,
      25, 26, 27, 28, 29, 30, 31, 32,
      33, 34, 35, 36, 37, 38, 39, 40,
      41, 42, 43, 44, 45, 46, 47, 48,
      49, 50, 51, 52, 53, 54, 55, 56,
      57, 58, 59, 60, 61, 62, 63, 64,
      65, 66, 67, 68, 69, 70, 71, 72,
      73, 74, 75, 76, 77, 78, 79, 80,
      81, 82, 83, 84, 85, 86, 87, 88,
      89, 90, 91, 92, 93, 94, 95, 96,
      97, 98, 99, 100, 101, 102, 103, 104,
      105, 106, 107, 108, 109, 110, 111, 112,
      113, 114, 115, 116, 117, 118, 119, 120,
      121, 122, 123, 124, 125, 126, 127, 128,
      129, 130, 131, 132, 133, 134, 135, 136,
      137, 138, 139, 140, 141, 142, 143, 144,
      145, 146, 147, 148, 149, 150, 151, 152,
      153, 154, 155, 156, 157, 158, 159, 160,
<!-- ... 1100 like lines cut -->
    </NodeSet>
  </Mesh>
  <MeshDomains>
    <SolidDomain name="Part1" mat="Material1"/>
  </MeshDomains>
  <Initial>
    <ic name="AInitialConcentration" node_set="AllNodes" type="initial concentration">
      <dof>c1</dof>
      <value>0</value>
    </ic>
    <ic name="BInitialConcentration" node_set="AllNodes" type="initial concentration">
      <dof>c2</dof>
      <value>0</value>
    </ic>
    <ic name="CInitialConcentration" node_set="AllNodes" type="initial concentration">
      <dof>c3</dof>
      <value>0</value>
    </ic>
  </Initial>
  <Boundary>
    <bc name="FixedBottom" node_set="BottomNodes" type="zero displacement">
      <x_dof>0</x_dof>
      <y_dof>0</y_dof>
      <z_dof>1</z_dof>
    </bc>
    <bc name="XAxisFixedInY" node_set="XAxis" type="zero displacement">
      <x_dof>0</x_dof>
      <y_dof>1</y_dof>
      <z_dof>0</z_dof>
    </bc>
    <bc name="YAxisFixedInX" node_set="YAxis" type="zero displacement">
      <x_dof>1</x_dof>
      <y_dof>0</y_dof>
      <z_dof>0</z_dof>
    </bc>
    <bc name="ZeroFluidPressure" node_set="AllNodes" type="zero fluid pressure"/>
  </Boundary>  
  <LoadData>
    <load_controller id="1" type="loadcurve">
      <interpolate>LINEAR</interpolate>
      <extend>REPEAT</extend>
      <points>
	<point>0,7.884e6</point>
	<point>1.577e7,7.884e6</point>
      </points>
    </load_controller>	  
  </LoadData>
  <Output>
    <plotfile type="febio">
      <var type="displacement"/>
      <var type="stress"/>
      <var type="SPR stress"/>
      <var type="nodal stress"/>
      <var type="relative volume"/>
      <var type="fluid flux"/>
      <var type="solute concentration"/>
      <var type="effective solute concentration"/>
      <var type="referential solute concentration"/>
      <var type="solute flux"/>      
      <var type="growth ratio"/>
      <var type="Jacobian"/>
      <var type="growth elastic Jacobian"/>
      <var type="growth Jacobian"/>
   </plotfile>
  </Output>
</febio_spec>
